data_ID_1

_cell_length_a      5.48681348
_cell_length_b      5.48681348
_cell_length_c     10.95066949
_cell_angle_alpha 104.50852853
_cell_angle_beta  104.50852853
_cell_angle_gamma  90.00000000

loop_
  _symmetry_equiv_pos_as_xyz
  'x, y, z'
  '-y+z+1/4, x+3/4, z+1/2'
  '-x+z, -y+z, z'
  'y+1/4, -x+z+3/4, z+1/2'
  '-x+z, y, z'
  'y+1/4, x+3/4, z+1/2'
  'x, -y+z, z'
  '-y+z+1/4, -x+z+3/4, z+1/2'

loop_
  _atom_site_type_symbol
  _atom_site_fract_x
  _atom_site_fract_y
  _atom_site_fract_z
  Si      0.299177  0.299177  0.598354
  Si      0.608580  0.608580  0.217159
  Si      0.987648  0.363648  0.975296
