data_ID_3

_cell_length_a      6.25360392
_cell_length_b      6.25360392
_cell_length_c      4.02751999
_cell_angle_alpha  90.00000000
_cell_angle_beta   90.00000000
_cell_angle_gamma  90.00000000

loop_
  _symmetry_equiv_pos_as_xyz
  'x, y, z'
  '-y, x, z'
  '-x, -y, z'
  'y, -x, z'
  '-x, y, z'
  'y, x, z'
  'x, -y, z'
  '-y, -x, z'
  'x, y, z+1/2'
  '-y, x, z+1/2'
  '-x, -y, z+1/2'
  'y, -x, z+1/2'
  '-x, y, z+1/2'
  'y, x, z+1/2'
  'x, -y, z+1/2'
  '-y, -x, z+1/2'

loop_
  _atom_site_type_symbol
  _atom_site_fract_x
  _atom_site_fract_y
  _atom_site_fract_z
  Si      0.500000  0.500000  0.154740
  Si      0.000000  0.500000  0.211442
  Si      0.000000  0.000000  0.533679
