data_ID_0

_cell_length_a      6.89106476
_cell_length_b      6.89106476
_cell_length_c      6.89106476
_cell_angle_alpha  60.00000000
_cell_angle_beta   60.00000000
_cell_angle_gamma  60.00000000

loop_
  _symmetry_equiv_pos_as_xyz
  'x, y, z'
  'z, x, -x-y-z'
  '-x-y-z, z, y'
  'y, -x-y-z, x'
  'y, x, -x-y-z'
  'x, z, y'
  'z, -x-y-z, x'
  '-x-y-z, y, z'
  'y, z, x'
  'x, -x-y-z, z'
  'z, y, -x-y-z'
  '-x-y-z, x, y'
  'x, -x-y-z, y'
  'z, y, x'
  '-x-y-z, x, z'
  'y, z, -x-y-z'
  'z, x, y'
  '-x-y-z, z, x'
  'y, -x-y-z, z'
  'x, y, -x-y-z'
  '-x-y-z, y, x'
  'y, x, z'
  'x, z, -x-y-z'
  'z, -x-y-z, y'

loop_
  _atom_site_type_symbol
  _atom_site_fract_x
  _atom_site_fract_y
  _atom_site_fract_z
  Si      0.541817  0.541817  0.958183
  Si      1.000000  0.000000  0.000000
  Si      0.250000  0.250000  0.250000
