data_ID_2

_cell_length_a      3.96849279
_cell_length_b      3.96849279
_cell_length_c      6.92285877
_cell_angle_alpha  90.00000000
_cell_angle_beta   90.00000000
_cell_angle_gamma 120.00000000

loop_
  _symmetry_equiv_pos_as_xyz
  'x, y, z'
  '-x, -y, -z'
  '-y, x-y, z'
  'y, -x+y, -z'
  '-x+y, -x, z'
  'x-y, x, -z'
  'y, x, -z'
  '-y, -x, z'
  'x-y, -y, -z'
  '-x+y, y, z'
  '-x, -x+y, -z'
  'x, x-y, z'

loop_
  _atom_site_type_symbol
  _atom_site_fract_x
  _atom_site_fract_y
  _atom_site_fract_z
  Si      0.333333  0.666667  0.749185
  Si      0.000000  0.000000  0.000000
  Si      0.333333  0.666667  0.916450
  Si      0.500000  0.000000  0.500000
